FoamFile
{
	version             2.0;
	format              ascii;
	class               featureEdgeMesh;
	location            "constant/triSurface";
	object              box_1.eMesh;
}

8(
(0.3333 0.3333 0.0)
(0.3333 0.3333 0.1)
(0.3333 0.6666 0.1)
(0.3333 0.6666 0.0)
(0.6666 0.3333 0.0)
(0.6666 0.3333 0.1)
(0.6666 0.6666 0.1)
(0.6666 0.6666 0.0)
)

12(
(0 1)
(1 2)
(2 3)
(3 0)
(0 4)
(1 5)
(2 6)
(3 7)
(4 5)
(5 6)
(6 7)
(7 4)
)
