FoamFile
{
	version	2.0;
	class	dictionary;
	format	ascii;
	location	"constant";
	object	RASProperties;
}
printCoeffs	on;
RASModel	laminar;
turbulence	false;
